
---------- Begin Simulation Statistics ----------
final_tick                                   36506000                       # Number of ticks from beginning of simulation (restored from checkpoints and never reset)
host_inst_rate                                  92878                       # Simulator instruction rate (inst/s)
host_mem_usage                                 681044                       # Number of bytes of host memory used
host_op_rate                                   107223                       # Simulator op (including micro ops) rate (op/s)
host_seconds                                     0.13                       # Real time elapsed on the host
host_tick_rate                              284035725                       # Simulator tick rate (ticks/s)
sim_freq                                 1000000000000                       # Frequency of simulated ticks
sim_insts                                       11916                       # Number of instructions simulated
sim_ops                                         13777                       # Number of ops (including micro ops) simulated
sim_seconds                                  0.000037                       # Number of seconds simulated
sim_ticks                                    36506000                       # Number of ticks simulated
system.cpu.branchPred.BTBCorrect                    0                       # Number of correct BTB predictions (this stat may not work properly.
system.cpu.branchPred.BTBHitPct             29.656301                       # BTB Hit Percentage
system.cpu.branchPred.BTBHits                     906                       # Number of BTB hits
system.cpu.branchPred.BTBLookups                 3055                       # Number of BTB lookups
system.cpu.branchPred.RASInCorrect                  7                       # Number of incorrect RAS predictions.
system.cpu.branchPred.condIncorrect               640                       # Number of conditional branches incorrect
system.cpu.branchPred.condPredicted              2593                       # Number of conditional branches predicted
system.cpu.branchPred.indirectHits                 52                       # Number of indirect target hits.
system.cpu.branchPred.indirectLookups             207                       # Number of indirect predictor lookups.
system.cpu.branchPred.indirectMisses              155                       # Number of indirect misses.
system.cpu.branchPred.lookups                    3917                       # Number of BP lookups
system.cpu.branchPred.usedRAS                     361                       # Number of times the RAS was used to get a target.
system.cpu.branchPredindirectMispredicted           77                       # Number of mispredicted indirect branches.
system.cpu.committedInsts                       11916                       # Number of instructions committed
system.cpu.committedOps                         13777                       # Number of ops (including micro ops) committed
system.cpu.cpi                               6.127224                       # CPI: cycles per instruction
system.cpu.discardedOps                          2079                       # Number of ops (including micro ops) which were discarded before commit
system.cpu.dtb.accesses                             0                       # DTB accesses
system.cpu.dtb.align_faults                         0                       # Number of TLB faults due to alignment restrictions
system.cpu.dtb.domain_faults                        0                       # Number of TLB faults due to domain restrictions
system.cpu.dtb.flush_entries                        0                       # Number of entries that have been flushed from TLB
system.cpu.dtb.flush_tlb                            0                       # Number of times complete TLB was flushed
system.cpu.dtb.flush_tlb_asid                       0                       # Number of times TLB was flushed by ASID
system.cpu.dtb.flush_tlb_mva                        0                       # Number of times TLB was flushed by MVA
system.cpu.dtb.flush_tlb_mva_asid                   0                       # Number of times TLB was flushed by MVA & ASID
system.cpu.dtb.hits                                 0                       # DTB hits
system.cpu.dtb.inst_accesses                        0                       # ITB inst accesses
system.cpu.dtb.inst_hits                            0                       # ITB inst hits
system.cpu.dtb.inst_misses                          0                       # ITB inst misses
system.cpu.dtb.misses                               0                       # DTB misses
system.cpu.dtb.perms_faults                         0                       # Number of TLB faults due to permissions restrictions
system.cpu.dtb.prefetch_faults                      0                       # Number of TLB faults due to prefetch
system.cpu.dtb.read_accesses                        0                       # DTB read accesses
system.cpu.dtb.read_hits                            0                       # DTB read hits
system.cpu.dtb.read_misses                          0                       # DTB read misses
system.cpu.dtb.stage2_mmu.stage2_tlb.accesses            0                       # DTB accesses
system.cpu.dtb.stage2_mmu.stage2_tlb.align_faults            0                       # Number of TLB faults due to alignment restrictions
system.cpu.dtb.stage2_mmu.stage2_tlb.domain_faults            0                       # Number of TLB faults due to domain restrictions
system.cpu.dtb.stage2_mmu.stage2_tlb.flush_entries            0                       # Number of entries that have been flushed from TLB
system.cpu.dtb.stage2_mmu.stage2_tlb.flush_tlb            0                       # Number of times complete TLB was flushed
system.cpu.dtb.stage2_mmu.stage2_tlb.flush_tlb_asid            0                       # Number of times TLB was flushed by ASID
system.cpu.dtb.stage2_mmu.stage2_tlb.flush_tlb_mva            0                       # Number of times TLB was flushed by MVA
system.cpu.dtb.stage2_mmu.stage2_tlb.flush_tlb_mva_asid            0                       # Number of times TLB was flushed by MVA & ASID
system.cpu.dtb.stage2_mmu.stage2_tlb.hits            0                       # DTB hits
system.cpu.dtb.stage2_mmu.stage2_tlb.inst_accesses            0                       # ITB inst accesses
system.cpu.dtb.stage2_mmu.stage2_tlb.inst_hits            0                       # ITB inst hits
system.cpu.dtb.stage2_mmu.stage2_tlb.inst_misses            0                       # ITB inst misses
system.cpu.dtb.stage2_mmu.stage2_tlb.misses            0                       # DTB misses
system.cpu.dtb.stage2_mmu.stage2_tlb.perms_faults            0                       # Number of TLB faults due to permissions restrictions
system.cpu.dtb.stage2_mmu.stage2_tlb.prefetch_faults            0                       # Number of TLB faults due to prefetch
system.cpu.dtb.stage2_mmu.stage2_tlb.read_accesses            0                       # DTB read accesses
system.cpu.dtb.stage2_mmu.stage2_tlb.read_hits            0                       # DTB read hits
system.cpu.dtb.stage2_mmu.stage2_tlb.read_misses            0                       # DTB read misses
system.cpu.dtb.stage2_mmu.stage2_tlb.walker.walkRequestOrigin_Requested::Data            0                       # Table walker requests started/completed, data/inst
system.cpu.dtb.stage2_mmu.stage2_tlb.walker.walkRequestOrigin_Requested::Inst            0                       # Table walker requests started/completed, data/inst
system.cpu.dtb.stage2_mmu.stage2_tlb.walker.walkRequestOrigin_Requested::total            0                       # Table walker requests started/completed, data/inst
system.cpu.dtb.stage2_mmu.stage2_tlb.walker.walkRequestOrigin_Completed::Data            0                       # Table walker requests started/completed, data/inst
system.cpu.dtb.stage2_mmu.stage2_tlb.walker.walkRequestOrigin_Completed::Inst            0                       # Table walker requests started/completed, data/inst
system.cpu.dtb.stage2_mmu.stage2_tlb.walker.walkRequestOrigin_Completed::total            0                       # Table walker requests started/completed, data/inst
system.cpu.dtb.stage2_mmu.stage2_tlb.walker.walkRequestOrigin::total            0                       # Table walker requests started/completed, data/inst
system.cpu.dtb.stage2_mmu.stage2_tlb.walker.walks            0                       # Table walker walks requested
system.cpu.dtb.stage2_mmu.stage2_tlb.write_accesses            0                       # DTB write accesses
system.cpu.dtb.stage2_mmu.stage2_tlb.write_hits            0                       # DTB write hits
system.cpu.dtb.stage2_mmu.stage2_tlb.write_misses            0                       # DTB write misses
system.cpu.dtb.walker.walkRequestOrigin_Requested::Data            0                       # Table walker requests started/completed, data/inst
system.cpu.dtb.walker.walkRequestOrigin_Requested::Inst            0                       # Table walker requests started/completed, data/inst
system.cpu.dtb.walker.walkRequestOrigin_Requested::total            0                       # Table walker requests started/completed, data/inst
system.cpu.dtb.walker.walkRequestOrigin_Completed::Data            0                       # Table walker requests started/completed, data/inst
system.cpu.dtb.walker.walkRequestOrigin_Completed::Inst            0                       # Table walker requests started/completed, data/inst
system.cpu.dtb.walker.walkRequestOrigin_Completed::total            0                       # Table walker requests started/completed, data/inst
system.cpu.dtb.walker.walkRequestOrigin::total            0                       # Table walker requests started/completed, data/inst
system.cpu.dtb.walker.walks                         0                       # Table walker walks requested
system.cpu.dtb.write_accesses                       0                       # DTB write accesses
system.cpu.dtb.write_hits                           0                       # DTB write hits
system.cpu.dtb.write_misses                         0                       # DTB write misses
system.cpu.fetch2.amo_instructions                  0                       # Number of memory atomic instructions successfully decoded
system.cpu.fetch2.fp_instructions                   0                       # Number of floating point instructions successfully decoded
system.cpu.fetch2.int_instructions              11409                       # Number of integer instructions successfully decoded
system.cpu.fetch2.load_instructions              2634                       # Number of memory load instructions successfully decoded
system.cpu.fetch2.store_instructions             1560                       # Number of memory store instructions successfully decoded
system.cpu.fetch2.vec_instructions                  0                       # Number of SIMD instructions successfully decoded
system.cpu.idleCycles                           51454                       # Total number of cycles that the object has spent stopped
system.cpu.ipc                               0.163206                       # IPC: instructions per cycle
system.cpu.itb.accesses                             0                       # DTB accesses
system.cpu.itb.align_faults                         0                       # Number of TLB faults due to alignment restrictions
system.cpu.itb.domain_faults                        0                       # Number of TLB faults due to domain restrictions
system.cpu.itb.flush_entries                        0                       # Number of entries that have been flushed from TLB
system.cpu.itb.flush_tlb                            0                       # Number of times complete TLB was flushed
system.cpu.itb.flush_tlb_asid                       0                       # Number of times TLB was flushed by ASID
system.cpu.itb.flush_tlb_mva                        0                       # Number of times TLB was flushed by MVA
system.cpu.itb.flush_tlb_mva_asid                   0                       # Number of times TLB was flushed by MVA & ASID
system.cpu.itb.hits                                 0                       # DTB hits
system.cpu.itb.inst_accesses                        0                       # ITB inst accesses
system.cpu.itb.inst_hits                            0                       # ITB inst hits
system.cpu.itb.inst_misses                          0                       # ITB inst misses
system.cpu.itb.misses                               0                       # DTB misses
system.cpu.itb.perms_faults                         0                       # Number of TLB faults due to permissions restrictions
system.cpu.itb.prefetch_faults                      0                       # Number of TLB faults due to prefetch
system.cpu.itb.read_accesses                        0                       # DTB read accesses
system.cpu.itb.read_hits                            0                       # DTB read hits
system.cpu.itb.read_misses                          0                       # DTB read misses
system.cpu.itb.stage2_mmu.stage2_tlb.accesses            0                       # DTB accesses
system.cpu.itb.stage2_mmu.stage2_tlb.align_faults            0                       # Number of TLB faults due to alignment restrictions
system.cpu.itb.stage2_mmu.stage2_tlb.domain_faults            0                       # Number of TLB faults due to domain restrictions
system.cpu.itb.stage2_mmu.stage2_tlb.flush_entries            0                       # Number of entries that have been flushed from TLB
system.cpu.itb.stage2_mmu.stage2_tlb.flush_tlb            0                       # Number of times complete TLB was flushed
system.cpu.itb.stage2_mmu.stage2_tlb.flush_tlb_asid            0                       # Number of times TLB was flushed by ASID
system.cpu.itb.stage2_mmu.stage2_tlb.flush_tlb_mva            0                       # Number of times TLB was flushed by MVA
system.cpu.itb.stage2_mmu.stage2_tlb.flush_tlb_mva_asid            0                       # Number of times TLB was flushed by MVA & ASID
system.cpu.itb.stage2_mmu.stage2_tlb.hits            0                       # DTB hits
system.cpu.itb.stage2_mmu.stage2_tlb.inst_accesses            0                       # ITB inst accesses
system.cpu.itb.stage2_mmu.stage2_tlb.inst_hits            0                       # ITB inst hits
system.cpu.itb.stage2_mmu.stage2_tlb.inst_misses            0                       # ITB inst misses
system.cpu.itb.stage2_mmu.stage2_tlb.misses            0                       # DTB misses
system.cpu.itb.stage2_mmu.stage2_tlb.perms_faults            0                       # Number of TLB faults due to permissions restrictions
system.cpu.itb.stage2_mmu.stage2_tlb.prefetch_faults            0                       # Number of TLB faults due to prefetch
system.cpu.itb.stage2_mmu.stage2_tlb.read_accesses            0                       # DTB read accesses
system.cpu.itb.stage2_mmu.stage2_tlb.read_hits            0                       # DTB read hits
system.cpu.itb.stage2_mmu.stage2_tlb.read_misses            0                       # DTB read misses
system.cpu.itb.stage2_mmu.stage2_tlb.walker.walkRequestOrigin_Requested::Data            0                       # Table walker requests started/completed, data/inst
system.cpu.itb.stage2_mmu.stage2_tlb.walker.walkRequestOrigin_Requested::Inst            0                       # Table walker requests started/completed, data/inst
system.cpu.itb.stage2_mmu.stage2_tlb.walker.walkRequestOrigin_Requested::total            0                       # Table walker requests started/completed, data/inst
system.cpu.itb.stage2_mmu.stage2_tlb.walker.walkRequestOrigin_Completed::Data            0                       # Table walker requests started/completed, data/inst
system.cpu.itb.stage2_mmu.stage2_tlb.walker.walkRequestOrigin_Completed::Inst            0                       # Table walker requests started/completed, data/inst
system.cpu.itb.stage2_mmu.stage2_tlb.walker.walkRequestOrigin_Completed::total            0                       # Table walker requests started/completed, data/inst
system.cpu.itb.stage2_mmu.stage2_tlb.walker.walkRequestOrigin::total            0                       # Table walker requests started/completed, data/inst
system.cpu.itb.stage2_mmu.stage2_tlb.walker.walks            0                       # Table walker walks requested
system.cpu.itb.stage2_mmu.stage2_tlb.write_accesses            0                       # DTB write accesses
system.cpu.itb.stage2_mmu.stage2_tlb.write_hits            0                       # DTB write hits
system.cpu.itb.stage2_mmu.stage2_tlb.write_misses            0                       # DTB write misses
system.cpu.itb.walker.walkRequestOrigin_Requested::Data            0                       # Table walker requests started/completed, data/inst
system.cpu.itb.walker.walkRequestOrigin_Requested::Inst            0                       # Table walker requests started/completed, data/inst
system.cpu.itb.walker.walkRequestOrigin_Requested::total            0                       # Table walker requests started/completed, data/inst
system.cpu.itb.walker.walkRequestOrigin_Completed::Data            0                       # Table walker requests started/completed, data/inst
system.cpu.itb.walker.walkRequestOrigin_Completed::Inst            0                       # Table walker requests started/completed, data/inst
system.cpu.itb.walker.walkRequestOrigin_Completed::total            0                       # Table walker requests started/completed, data/inst
system.cpu.itb.walker.walkRequestOrigin::total            0                       # Table walker requests started/completed, data/inst
system.cpu.itb.walker.walks                         0                       # Table walker walks requested
system.cpu.itb.write_accesses                       0                       # DTB write accesses
system.cpu.itb.write_hits                           0                       # DTB write hits
system.cpu.itb.write_misses                         0                       # DTB write misses
system.cpu.numCycles                            73012                       # number of cpu cycles simulated
system.cpu.numFetchSuspends                         0                       # Number of times Execute suspended instruction fetching
system.cpu.numWorkItemsCompleted                    0                       # number of work items this cpu completed
system.cpu.numWorkItemsStarted                      0                       # number of work items this cpu started
system.cpu.op_class_0::No_OpClass                   0      0.00%      0.00% # Class of committed instruction
system.cpu.op_class_0::IntAlu                    9561     69.40%     69.40% # Class of committed instruction
system.cpu.op_class_0::IntMult                     57      0.41%     69.81% # Class of committed instruction
system.cpu.op_class_0::IntDiv                       0      0.00%     69.81% # Class of committed instruction
system.cpu.op_class_0::FloatAdd                     0      0.00%     69.81% # Class of committed instruction
system.cpu.op_class_0::FloatCmp                     0      0.00%     69.81% # Class of committed instruction
system.cpu.op_class_0::FloatCvt                     0      0.00%     69.81% # Class of committed instruction
system.cpu.op_class_0::FloatMult                    0      0.00%     69.81% # Class of committed instruction
system.cpu.op_class_0::FloatMultAcc                 0      0.00%     69.81% # Class of committed instruction
system.cpu.op_class_0::FloatDiv                     0      0.00%     69.81% # Class of committed instruction
system.cpu.op_class_0::FloatMisc                    0      0.00%     69.81% # Class of committed instruction
system.cpu.op_class_0::FloatSqrt                    0      0.00%     69.81% # Class of committed instruction
system.cpu.op_class_0::SimdAdd                      0      0.00%     69.81% # Class of committed instruction
system.cpu.op_class_0::SimdAddAcc                   0      0.00%     69.81% # Class of committed instruction
system.cpu.op_class_0::SimdAlu                      0      0.00%     69.81% # Class of committed instruction
system.cpu.op_class_0::SimdCmp                      0      0.00%     69.81% # Class of committed instruction
system.cpu.op_class_0::SimdCvt                      0      0.00%     69.81% # Class of committed instruction
system.cpu.op_class_0::SimdMisc                     0      0.00%     69.81% # Class of committed instruction
system.cpu.op_class_0::SimdMult                     0      0.00%     69.81% # Class of committed instruction
system.cpu.op_class_0::SimdMultAcc                  0      0.00%     69.81% # Class of committed instruction
system.cpu.op_class_0::SimdShift                    0      0.00%     69.81% # Class of committed instruction
system.cpu.op_class_0::SimdShiftAcc                 0      0.00%     69.81% # Class of committed instruction
system.cpu.op_class_0::SimdDiv                      0      0.00%     69.81% # Class of committed instruction
system.cpu.op_class_0::SimdSqrt                     0      0.00%     69.81% # Class of committed instruction
system.cpu.op_class_0::SimdFloatAdd                 0      0.00%     69.81% # Class of committed instruction
system.cpu.op_class_0::SimdFloatAlu                 0      0.00%     69.81% # Class of committed instruction
system.cpu.op_class_0::SimdFloatCmp                 0      0.00%     69.81% # Class of committed instruction
system.cpu.op_class_0::SimdFloatCvt                 0      0.00%     69.81% # Class of committed instruction
system.cpu.op_class_0::SimdFloatDiv                 0      0.00%     69.81% # Class of committed instruction
system.cpu.op_class_0::SimdFloatMisc                0      0.00%     69.81% # Class of committed instruction
system.cpu.op_class_0::SimdFloatMult                0      0.00%     69.81% # Class of committed instruction
system.cpu.op_class_0::SimdFloatMultAcc             0      0.00%     69.81% # Class of committed instruction
system.cpu.op_class_0::SimdFloatSqrt                0      0.00%     69.81% # Class of committed instruction
system.cpu.op_class_0::SimdReduceAdd                0      0.00%     69.81% # Class of committed instruction
system.cpu.op_class_0::SimdReduceAlu                0      0.00%     69.81% # Class of committed instruction
system.cpu.op_class_0::SimdReduceCmp                0      0.00%     69.81% # Class of committed instruction
system.cpu.op_class_0::SimdFloatReduceAdd            0      0.00%     69.81% # Class of committed instruction
system.cpu.op_class_0::SimdFloatReduceCmp            0      0.00%     69.81% # Class of committed instruction
system.cpu.op_class_0::SimdAes                      0      0.00%     69.81% # Class of committed instruction
system.cpu.op_class_0::SimdAesMix                   0      0.00%     69.81% # Class of committed instruction
system.cpu.op_class_0::SimdSha1Hash                 0      0.00%     69.81% # Class of committed instruction
system.cpu.op_class_0::SimdSha1Hash2                0      0.00%     69.81% # Class of committed instruction
system.cpu.op_class_0::SimdSha256Hash               0      0.00%     69.81% # Class of committed instruction
system.cpu.op_class_0::SimdSha256Hash2              0      0.00%     69.81% # Class of committed instruction
system.cpu.op_class_0::SimdShaSigma2                0      0.00%     69.81% # Class of committed instruction
system.cpu.op_class_0::SimdShaSigma3                0      0.00%     69.81% # Class of committed instruction
system.cpu.op_class_0::SimdPredAlu                  0      0.00%     69.81% # Class of committed instruction
system.cpu.op_class_0::MemRead                   2040     14.81%     84.62% # Class of committed instruction
system.cpu.op_class_0::MemWrite                  2119     15.38%    100.00% # Class of committed instruction
system.cpu.op_class_0::FloatMemRead                 0      0.00%    100.00% # Class of committed instruction
system.cpu.op_class_0::FloatMemWrite                0      0.00%    100.00% # Class of committed instruction
system.cpu.op_class_0::IprAccess                    0      0.00%    100.00% # Class of committed instruction
system.cpu.op_class_0::InstPrefetch                 0      0.00%    100.00% # Class of committed instruction
system.cpu.op_class_0::total                    13777                       # Class of committed instruction
system.cpu.tickCycles                           21558                       # Number of cycles that the object actually ticked
system.cpu.workload.numSyscalls                    15                       # Number of system calls
system.membus.snoop_filter.hit_multi_requests            5                       # Number of requests hitting in the snoop filter with multiple (>1) holders of the requested data.
system.membus.snoop_filter.hit_multi_snoops            0                       # Number of snoops hitting in the snoop filter with multiple (>1) holders of the requested data.
system.membus.snoop_filter.hit_single_requests           91                       # Number of requests hitting in the snoop filter with a single holder of the requested data.
system.membus.snoop_filter.hit_single_snoops            0                       # Number of snoops hitting in the snoop filter with a single holder of the requested data.
system.membus.snoop_filter.tot_requests           655                       # Total number of requests made to the snoop filter.
system.membus.snoop_filter.tot_snoops               0                       # Total number of snoops made to the snoop filter.
system.membus.pwrStateResidencyTicks::UNDEFINED     36506000                       # Cumulative time (in ticks) in various power states
system.membus.trans_dist::ReadResp                517                       # Transaction distribution
system.membus.trans_dist::WritebackClean           74                       # Transaction distribution
system.membus.trans_dist::ReadExReq                64                       # Transaction distribution
system.membus.trans_dist::ReadExResp               64                       # Transaction distribution
system.membus.trans_dist::ReadCleanReq            420                       # Transaction distribution
system.membus.trans_dist::ReadSharedReq            97                       # Transaction distribution
system.membus.pkt_count_system.cpu.icache.mem_side::system.mem_ctrls.port          914                       # Packet count per connected master and slave (bytes)
system.membus.pkt_count_system.cpu.dcache.mem_side::system.mem_ctrls.port          322                       # Packet count per connected master and slave (bytes)
system.membus.pkt_count::total                   1236                       # Packet count per connected master and slave (bytes)
system.membus.pkt_size_system.cpu.icache.mem_side::system.mem_ctrls.port        31616                       # Cumulative packet size per connected master and slave (bytes)
system.membus.pkt_size_system.cpu.dcache.mem_side::system.mem_ctrls.port        10304                       # Cumulative packet size per connected master and slave (bytes)
system.membus.pkt_size::total                   41920                       # Cumulative packet size per connected master and slave (bytes)
system.membus.snoops                                0                       # Total snoops (count)
system.membus.snoopTraffic                          0                       # Total snoop traffic (bytes)
system.membus.snoop_fanout::samples               581                       # Request fanout histogram
system.membus.snoop_fanout::mean             0.037866                       # Request fanout histogram
system.membus.snoop_fanout::stdev            0.191036                       # Request fanout histogram
system.membus.snoop_fanout::underflows              0      0.00%      0.00% # Request fanout histogram
system.membus.snoop_fanout::0                     559     96.21%     96.21% # Request fanout histogram
system.membus.snoop_fanout::1                      22      3.79%    100.00% # Request fanout histogram
system.membus.snoop_fanout::2                       0      0.00%    100.00% # Request fanout histogram
system.membus.snoop_fanout::overflows               0      0.00%    100.00% # Request fanout histogram
system.membus.snoop_fanout::min_value               0                       # Request fanout histogram
system.membus.snoop_fanout::max_value               1                       # Request fanout histogram
system.membus.snoop_fanout::total                 581                       # Request fanout histogram
system.membus.reqLayer0.occupancy             1033000                       # Layer occupancy (ticks)
system.membus.reqLayer0.utilization               2.8                       # Layer utilization (%)
system.membus.respLayer1.occupancy            2228250                       # Layer occupancy (ticks)
system.membus.respLayer1.utilization              6.1                       # Layer utilization (%)
system.membus.respLayer2.occupancy             866500                       # Layer occupancy (ticks)
system.membus.respLayer2.utilization              2.4                       # Layer utilization (%)
system.voltage_domain.voltage                       1                       # Voltage in Volts
system.clk_domain.clock                          1000                       # Clock period in ticks
system.cpu_voltage_domain.voltage                   1                       # Voltage in Volts
system.mem_ctrls.pwrStateResidencyTicks::UNDEFINED     36506000                       # Cumulative time (in ticks) in various power states
system.mem_ctrls.bytes_read::.cpu.inst          26880                       # Number of bytes read from this memory
system.mem_ctrls.bytes_read::.cpu.data          10304                       # Number of bytes read from this memory
system.mem_ctrls.bytes_read::total              37184                       # Number of bytes read from this memory
system.mem_ctrls.bytes_inst_read::.cpu.inst        26880                       # Number of instructions bytes read from this memory
system.mem_ctrls.bytes_inst_read::total         26880                       # Number of instructions bytes read from this memory
system.mem_ctrls.num_reads::.cpu.inst             420                       # Number of read requests responded to by this memory
system.mem_ctrls.num_reads::.cpu.data             161                       # Number of read requests responded to by this memory
system.mem_ctrls.num_reads::total                 581                       # Number of read requests responded to by this memory
system.mem_ctrls.bw_read::.cpu.inst         736317318                       # Total read bandwidth from this memory (bytes/s)
system.mem_ctrls.bw_read::.cpu.data         282254972                       # Total read bandwidth from this memory (bytes/s)
system.mem_ctrls.bw_read::total            1018572289                       # Total read bandwidth from this memory (bytes/s)
system.mem_ctrls.bw_inst_read::.cpu.inst    736317318                       # Instruction read bandwidth from this memory (bytes/s)
system.mem_ctrls.bw_inst_read::total        736317318                       # Instruction read bandwidth from this memory (bytes/s)
system.mem_ctrls.bw_total::.cpu.inst        736317318                       # Total bandwidth to/from this memory (bytes/s)
system.mem_ctrls.bw_total::.cpu.data        282254972                       # Total bandwidth to/from this memory (bytes/s)
system.mem_ctrls.bw_total::total           1018572289                       # Total bandwidth to/from this memory (bytes/s)
system.mem_ctrls.avgPriority_.writebacks::samples        65.00                       # Average QoS priority value for accepted requests
system.mem_ctrls.avgPriority_.cpu.inst::samples       408.00                       # Average QoS priority value for accepted requests
system.mem_ctrls.avgPriority_.cpu.data::samples       161.00                       # Average QoS priority value for accepted requests
system.mem_ctrls.priorityMinLatency      0.000000018750                       # per QoS priority minimum request to response latency (s)
system.mem_ctrls.priorityMaxLatency      0.000029664750                       # per QoS priority maximum request to response latency (s)
system.mem_ctrls.numReadWriteTurnArounds            2                       # Number of turnarounds from READ to WRITE
system.mem_ctrls.numWriteReadTurnArounds            3                       # Number of turnarounds from WRITE to READ
system.mem_ctrls.numStayReadState                1206                       # Number of times bus staying in READ state
system.mem_ctrls.numStayWriteState                 36                       # Number of times bus staying in WRITE state
system.mem_ctrls.readReqs                         581                       # Number of read requests accepted
system.mem_ctrls.writeReqs                         69                       # Number of write requests accepted
system.mem_ctrls.readBursts                       581                       # Number of DRAM read bursts, including those serviced by the write queue
system.mem_ctrls.writeBursts                       69                       # Number of DRAM write bursts, including those merged in the write queue
system.mem_ctrls.servicedByWrQ                     12                       # Number of DRAM read bursts serviced by the write queue
system.mem_ctrls.mergedWrBursts                     4                       # Number of DRAM write bursts merged with an existing one
system.mem_ctrls.neitherReadNorWriteReqs            0                       # Number of requests that are neither read nor write
system.mem_ctrls.perBankRdBursts::0                39                       # Per bank write bursts
system.mem_ctrls.perBankRdBursts::1                 7                       # Per bank write bursts
system.mem_ctrls.perBankRdBursts::2                24                       # Per bank write bursts
system.mem_ctrls.perBankRdBursts::3                48                       # Per bank write bursts
system.mem_ctrls.perBankRdBursts::4                43                       # Per bank write bursts
system.mem_ctrls.perBankRdBursts::5                56                       # Per bank write bursts
system.mem_ctrls.perBankRdBursts::6                35                       # Per bank write bursts
system.mem_ctrls.perBankRdBursts::7               109                       # Per bank write bursts
system.mem_ctrls.perBankRdBursts::8                52                       # Per bank write bursts
system.mem_ctrls.perBankRdBursts::9                72                       # Per bank write bursts
system.mem_ctrls.perBankRdBursts::10                5                       # Per bank write bursts
system.mem_ctrls.perBankRdBursts::11               10                       # Per bank write bursts
system.mem_ctrls.perBankRdBursts::12                8                       # Per bank write bursts
system.mem_ctrls.perBankRdBursts::13               12                       # Per bank write bursts
system.mem_ctrls.perBankRdBursts::14               21                       # Per bank write bursts
system.mem_ctrls.perBankRdBursts::15               28                       # Per bank write bursts
system.mem_ctrls.perBankWrBursts::0                10                       # Per bank write bursts
system.mem_ctrls.perBankWrBursts::1                 2                       # Per bank write bursts
system.mem_ctrls.perBankWrBursts::2                 1                       # Per bank write bursts
system.mem_ctrls.perBankWrBursts::3                 2                       # Per bank write bursts
system.mem_ctrls.perBankWrBursts::4                 0                       # Per bank write bursts
system.mem_ctrls.perBankWrBursts::5                11                       # Per bank write bursts
system.mem_ctrls.perBankWrBursts::6                 2                       # Per bank write bursts
system.mem_ctrls.perBankWrBursts::7                11                       # Per bank write bursts
system.mem_ctrls.perBankWrBursts::8                 0                       # Per bank write bursts
system.mem_ctrls.perBankWrBursts::9                 0                       # Per bank write bursts
system.mem_ctrls.perBankWrBursts::10                0                       # Per bank write bursts
system.mem_ctrls.perBankWrBursts::11                0                       # Per bank write bursts
system.mem_ctrls.perBankWrBursts::12                0                       # Per bank write bursts
system.mem_ctrls.perBankWrBursts::13                0                       # Per bank write bursts
system.mem_ctrls.perBankWrBursts::14                0                       # Per bank write bursts
system.mem_ctrls.perBankWrBursts::15                0                       # Per bank write bursts
system.mem_ctrls.avgRdQLen                       1.16                       # Average read queue length when enqueuing
system.mem_ctrls.avgWrQLen                      12.44                       # Average write queue length when enqueuing
system.mem_ctrls.totQLat                      3919000                       # Total ticks spent queuing
system.mem_ctrls.totBusLat                    2845000                       # Total ticks spent in databus transfers
system.mem_ctrls.totMemAccLat                14587750                       # Total ticks spent from burst creation until serviced by the DRAM
system.mem_ctrls.avgQLat                      6887.52                       # Average queueing delay per DRAM burst
system.mem_ctrls.avgBusLat                    5000.00                       # Average bus latency per DRAM burst
system.mem_ctrls.avgMemAccLat                25637.52                       # Average memory access latency per DRAM burst
system.mem_ctrls.numRdRetry                         0                       # Number of times read queue was full causing retry
system.mem_ctrls.numWrRetry                         0                       # Number of times write queue was full causing retry
system.mem_ctrls.readRowHits                      452                       # Number of row buffer hits during reads
system.mem_ctrls.writeRowHits                      33                       # Number of row buffer hits during writes
system.mem_ctrls.readRowHitRate                 79.44                       # Row buffer hit rate for reads
system.mem_ctrls.writeRowHitRate                50.77                       # Row buffer hit rate for writes
system.mem_ctrls.readPktSize::0                     0                       # Read request sizes (log2)
system.mem_ctrls.readPktSize::1                     0                       # Read request sizes (log2)
system.mem_ctrls.readPktSize::2                     0                       # Read request sizes (log2)
system.mem_ctrls.readPktSize::3                     0                       # Read request sizes (log2)
system.mem_ctrls.readPktSize::4                     0                       # Read request sizes (log2)
system.mem_ctrls.readPktSize::5                     0                       # Read request sizes (log2)
system.mem_ctrls.readPktSize::6                   581                       # Read request sizes (log2)
system.mem_ctrls.writePktSize::0                    0                       # Write request sizes (log2)
system.mem_ctrls.writePktSize::1                    0                       # Write request sizes (log2)
system.mem_ctrls.writePktSize::2                    0                       # Write request sizes (log2)
system.mem_ctrls.writePktSize::3                    0                       # Write request sizes (log2)
system.mem_ctrls.writePktSize::4                    0                       # Write request sizes (log2)
system.mem_ctrls.writePktSize::5                    0                       # Write request sizes (log2)
system.mem_ctrls.writePktSize::6                   69                       # Write request sizes (log2)
system.mem_ctrls.rdQLenPdf::0                     483                       # What read queue length does an incoming req see
system.mem_ctrls.rdQLenPdf::1                      81                       # What read queue length does an incoming req see
system.mem_ctrls.rdQLenPdf::2                       5                       # What read queue length does an incoming req see
system.mem_ctrls.rdQLenPdf::3                       0                       # What read queue length does an incoming req see
system.mem_ctrls.rdQLenPdf::4                       0                       # What read queue length does an incoming req see
system.mem_ctrls.rdQLenPdf::5                       0                       # What read queue length does an incoming req see
system.mem_ctrls.rdQLenPdf::6                       0                       # What read queue length does an incoming req see
system.mem_ctrls.rdQLenPdf::7                       0                       # What read queue length does an incoming req see
system.mem_ctrls.rdQLenPdf::8                       0                       # What read queue length does an incoming req see
system.mem_ctrls.rdQLenPdf::9                       0                       # What read queue length does an incoming req see
system.mem_ctrls.rdQLenPdf::10                      0                       # What read queue length does an incoming req see
system.mem_ctrls.rdQLenPdf::11                      0                       # What read queue length does an incoming req see
system.mem_ctrls.rdQLenPdf::12                      0                       # What read queue length does an incoming req see
system.mem_ctrls.rdQLenPdf::13                      0                       # What read queue length does an incoming req see
system.mem_ctrls.rdQLenPdf::14                      0                       # What read queue length does an incoming req see
system.mem_ctrls.rdQLenPdf::15                      0                       # What read queue length does an incoming req see
system.mem_ctrls.rdQLenPdf::16                      0                       # What read queue length does an incoming req see
system.mem_ctrls.rdQLenPdf::17                      0                       # What read queue length does an incoming req see
system.mem_ctrls.rdQLenPdf::18                      0                       # What read queue length does an incoming req see
system.mem_ctrls.rdQLenPdf::19                      0                       # What read queue length does an incoming req see
system.mem_ctrls.rdQLenPdf::20                      0                       # What read queue length does an incoming req see
system.mem_ctrls.rdQLenPdf::21                      0                       # What read queue length does an incoming req see
system.mem_ctrls.rdQLenPdf::22                      0                       # What read queue length does an incoming req see
system.mem_ctrls.rdQLenPdf::23                      0                       # What read queue length does an incoming req see
system.mem_ctrls.rdQLenPdf::24                      0                       # What read queue length does an incoming req see
system.mem_ctrls.rdQLenPdf::25                      0                       # What read queue length does an incoming req see
system.mem_ctrls.rdQLenPdf::26                      0                       # What read queue length does an incoming req see
system.mem_ctrls.rdQLenPdf::27                      0                       # What read queue length does an incoming req see
system.mem_ctrls.rdQLenPdf::28                      0                       # What read queue length does an incoming req see
system.mem_ctrls.rdQLenPdf::29                      0                       # What read queue length does an incoming req see
system.mem_ctrls.rdQLenPdf::30                      0                       # What read queue length does an incoming req see
system.mem_ctrls.rdQLenPdf::31                      0                       # What read queue length does an incoming req see
system.mem_ctrls.wrQLenPdf::0                       1                       # What write queue length does an incoming req see
system.mem_ctrls.wrQLenPdf::1                       1                       # What write queue length does an incoming req see
system.mem_ctrls.wrQLenPdf::2                       1                       # What write queue length does an incoming req see
system.mem_ctrls.wrQLenPdf::3                       1                       # What write queue length does an incoming req see
system.mem_ctrls.wrQLenPdf::4                       1                       # What write queue length does an incoming req see
system.mem_ctrls.wrQLenPdf::5                       1                       # What write queue length does an incoming req see
system.mem_ctrls.wrQLenPdf::6                       1                       # What write queue length does an incoming req see
system.mem_ctrls.wrQLenPdf::7                       1                       # What write queue length does an incoming req see
system.mem_ctrls.wrQLenPdf::8                       1                       # What write queue length does an incoming req see
system.mem_ctrls.wrQLenPdf::9                       1                       # What write queue length does an incoming req see
system.mem_ctrls.wrQLenPdf::10                      1                       # What write queue length does an incoming req see
system.mem_ctrls.wrQLenPdf::11                      1                       # What write queue length does an incoming req see
system.mem_ctrls.wrQLenPdf::12                      1                       # What write queue length does an incoming req see
system.mem_ctrls.wrQLenPdf::13                      1                       # What write queue length does an incoming req see
system.mem_ctrls.wrQLenPdf::14                      1                       # What write queue length does an incoming req see
system.mem_ctrls.wrQLenPdf::15                      1                       # What write queue length does an incoming req see
system.mem_ctrls.wrQLenPdf::16                      1                       # What write queue length does an incoming req see
system.mem_ctrls.wrQLenPdf::17                      2                       # What write queue length does an incoming req see
system.mem_ctrls.wrQLenPdf::18                      3                       # What write queue length does an incoming req see
system.mem_ctrls.wrQLenPdf::19                      3                       # What write queue length does an incoming req see
system.mem_ctrls.wrQLenPdf::20                      3                       # What write queue length does an incoming req see
system.mem_ctrls.wrQLenPdf::21                      4                       # What write queue length does an incoming req see
system.mem_ctrls.wrQLenPdf::22                      3                       # What write queue length does an incoming req see
system.mem_ctrls.wrQLenPdf::23                      3                       # What write queue length does an incoming req see
system.mem_ctrls.wrQLenPdf::24                      3                       # What write queue length does an incoming req see
system.mem_ctrls.wrQLenPdf::25                      3                       # What write queue length does an incoming req see
system.mem_ctrls.wrQLenPdf::26                      3                       # What write queue length does an incoming req see
system.mem_ctrls.wrQLenPdf::27                      3                       # What write queue length does an incoming req see
system.mem_ctrls.wrQLenPdf::28                      3                       # What write queue length does an incoming req see
system.mem_ctrls.wrQLenPdf::29                      3                       # What write queue length does an incoming req see
system.mem_ctrls.wrQLenPdf::30                      3                       # What write queue length does an incoming req see
system.mem_ctrls.wrQLenPdf::31                      3                       # What write queue length does an incoming req see
system.mem_ctrls.wrQLenPdf::32                      3                       # What write queue length does an incoming req see
system.mem_ctrls.wrQLenPdf::33                      0                       # What write queue length does an incoming req see
system.mem_ctrls.wrQLenPdf::34                      0                       # What write queue length does an incoming req see
system.mem_ctrls.wrQLenPdf::35                      0                       # What write queue length does an incoming req see
system.mem_ctrls.wrQLenPdf::36                      0                       # What write queue length does an incoming req see
system.mem_ctrls.wrQLenPdf::37                      0                       # What write queue length does an incoming req see
system.mem_ctrls.wrQLenPdf::38                      0                       # What write queue length does an incoming req see
system.mem_ctrls.wrQLenPdf::39                      0                       # What write queue length does an incoming req see
system.mem_ctrls.wrQLenPdf::40                      0                       # What write queue length does an incoming req see
system.mem_ctrls.wrQLenPdf::41                      0                       # What write queue length does an incoming req see
system.mem_ctrls.wrQLenPdf::42                      0                       # What write queue length does an incoming req see
system.mem_ctrls.wrQLenPdf::43                      0                       # What write queue length does an incoming req see
system.mem_ctrls.wrQLenPdf::44                      0                       # What write queue length does an incoming req see
system.mem_ctrls.wrQLenPdf::45                      0                       # What write queue length does an incoming req see
system.mem_ctrls.wrQLenPdf::46                      0                       # What write queue length does an incoming req see
system.mem_ctrls.wrQLenPdf::47                      0                       # What write queue length does an incoming req see
system.mem_ctrls.wrQLenPdf::48                      0                       # What write queue length does an incoming req see
system.mem_ctrls.wrQLenPdf::49                      0                       # What write queue length does an incoming req see
system.mem_ctrls.wrQLenPdf::50                      0                       # What write queue length does an incoming req see
system.mem_ctrls.wrQLenPdf::51                      0                       # What write queue length does an incoming req see
system.mem_ctrls.wrQLenPdf::52                      0                       # What write queue length does an incoming req see
system.mem_ctrls.wrQLenPdf::53                      0                       # What write queue length does an incoming req see
system.mem_ctrls.wrQLenPdf::54                      0                       # What write queue length does an incoming req see
system.mem_ctrls.wrQLenPdf::55                      0                       # What write queue length does an incoming req see
system.mem_ctrls.wrQLenPdf::56                      0                       # What write queue length does an incoming req see
system.mem_ctrls.wrQLenPdf::57                      0                       # What write queue length does an incoming req see
system.mem_ctrls.wrQLenPdf::58                      0                       # What write queue length does an incoming req see
system.mem_ctrls.wrQLenPdf::59                      0                       # What write queue length does an incoming req see
system.mem_ctrls.wrQLenPdf::60                      0                       # What write queue length does an incoming req see
system.mem_ctrls.wrQLenPdf::61                      0                       # What write queue length does an incoming req see
system.mem_ctrls.wrQLenPdf::62                      0                       # What write queue length does an incoming req see
system.mem_ctrls.wrQLenPdf::63                      0                       # What write queue length does an incoming req see
system.mem_ctrls.bytesPerActivate::samples          111                       # Bytes accessed per row activation
system.mem_ctrls.bytesPerActivate::mean    328.072072                       # Bytes accessed per row activation
system.mem_ctrls.bytesPerActivate::gmean   213.890564                       # Bytes accessed per row activation
system.mem_ctrls.bytesPerActivate::stdev   313.667331                       # Bytes accessed per row activation
system.mem_ctrls.bytesPerActivate::0-127           27     24.32%     24.32% # Bytes accessed per row activation
system.mem_ctrls.bytesPerActivate::128-255           30     27.03%     51.35% # Bytes accessed per row activation
system.mem_ctrls.bytesPerActivate::256-383           25     22.52%     73.87% # Bytes accessed per row activation
system.mem_ctrls.bytesPerActivate::384-511            5      4.50%     78.38% # Bytes accessed per row activation
system.mem_ctrls.bytesPerActivate::512-639            3      2.70%     81.08% # Bytes accessed per row activation
system.mem_ctrls.bytesPerActivate::640-767            4      3.60%     84.68% # Bytes accessed per row activation
system.mem_ctrls.bytesPerActivate::768-895            2      1.80%     86.49% # Bytes accessed per row activation
system.mem_ctrls.bytesPerActivate::896-1023            4      3.60%     90.09% # Bytes accessed per row activation
system.mem_ctrls.bytesPerActivate::1024-1151           11      9.91%    100.00% # Bytes accessed per row activation
system.mem_ctrls.bytesPerActivate::total          111                       # Bytes accessed per row activation
system.mem_ctrls.rdPerTurnAround::samples            3                       # Reads before turning the bus around for writes
system.mem_ctrls.rdPerTurnAround::mean     189.666667                       # Reads before turning the bus around for writes
system.mem_ctrls.rdPerTurnAround::gmean    136.418406                       # Reads before turning the bus around for writes
system.mem_ctrls.rdPerTurnAround::stdev    192.546964                       # Reads before turning the bus around for writes
system.mem_ctrls.rdPerTurnAround::64-79             2     66.67%     66.67% # Reads before turning the bus around for writes
system.mem_ctrls.rdPerTurnAround::400-415            1     33.33%    100.00% # Reads before turning the bus around for writes
system.mem_ctrls.rdPerTurnAround::total             3                       # Reads before turning the bus around for writes
system.mem_ctrls.wrPerTurnAround::samples            2                       # Writes before turning the bus around for reads
system.mem_ctrls.wrPerTurnAround::mean             16                       # Writes before turning the bus around for reads
system.mem_ctrls.wrPerTurnAround::gmean     16.000000                       # Writes before turning the bus around for reads
system.mem_ctrls.wrPerTurnAround::16                2    100.00%    100.00% # Writes before turning the bus around for reads
system.mem_ctrls.wrPerTurnAround::total             2                       # Writes before turning the bus around for reads
system.mem_ctrls.bytesReadDRAM                  36416                       # Total number of bytes read from DRAM
system.mem_ctrls.bytesReadWrQ                     768                       # Total number of bytes read from write queue
system.mem_ctrls.bytesWritten                    2496                       # Total number of bytes written to DRAM
system.mem_ctrls.bytesReadSys                   37184                       # Total read bytes from the system interface side
system.mem_ctrls.bytesWrittenSys                 4416                       # Total written bytes from the system interface side
system.mem_ctrls.avgRdBW                       997.53                       # Average DRAM read bandwidth in MiByte/s
system.mem_ctrls.avgWrBW                        68.37                       # Average achieved write bandwidth in MiByte/s
system.mem_ctrls.avgRdBWSys                   1018.57                       # Average system read bandwidth in MiByte/s
system.mem_ctrls.avgWrBWSys                    120.97                       # Average system write bandwidth in MiByte/s
system.mem_ctrls.peakBW                      12800.00                       # Theoretical peak bandwidth in MiByte/s
system.mem_ctrls.busUtil                         8.33                       # Data bus utilization in percentage
system.mem_ctrls.busUtilRead                     7.79                       # Data bus utilization in percentage for reads
system.mem_ctrls.busUtilWrite                    0.53                       # Data bus utilization in percentage for writes
system.mem_ctrls.totGap                      36497500                       # Total gap between requests
system.mem_ctrls.avgGap                      56150.00                       # Average gap between requests
system.mem_ctrls.masterReadBytes::.cpu.inst        26112                       # Per-master bytes read from memory
system.mem_ctrls.masterReadBytes::.cpu.data        10304                       # Per-master bytes read from memory
system.mem_ctrls.masterWriteBytes::.writebacks         2496                       # Per-master bytes write to memory
system.mem_ctrls.masterReadRate::.cpu.inst 715279680.052594065666                       # Per-master bytes read from memory rate (Bytes/sec)
system.mem_ctrls.masterReadRate::.cpu.data 282254971.785459935665                       # Per-master bytes read from memory rate (Bytes/sec)
system.mem_ctrls.masterWriteRate::.writebacks 68372322.357968553901                       # Per-master bytes write to memory rate (Bytes/sec)
system.mem_ctrls.masterReadAccesses::.cpu.inst          420                       # Per-master read serviced memory accesses
system.mem_ctrls.masterReadAccesses::.cpu.data          161                       # Per-master read serviced memory accesses
system.mem_ctrls.masterWriteAccesses::.writebacks           69                       # Per-master write serviced memory accesses
system.mem_ctrls.masterReadTotalLat::.cpu.inst     10146750                       # Per-master read total memory access latency
system.mem_ctrls.masterReadTotalLat::.cpu.data      4441000                       # Per-master read total memory access latency
system.mem_ctrls.masterWriteTotalLat::.writebacks    220877250                       # Per-master write total memory access latency
system.mem_ctrls.masterReadAvgLat::.cpu.inst     24158.93                       # Per-master read average memory access latency
system.mem_ctrls.masterReadAvgLat::.cpu.data     27583.85                       # Per-master read average memory access latency
system.mem_ctrls.masterWriteAvgLat::.writebacks   3201119.57                       # Per-master write average memory access latency
system.mem_ctrls.pageHitRate                    76.50                       # Row buffer hit rate, read and write combined
system.mem_ctrls.rank1.actEnergy               349860                       # Energy for activate commands per rank (pJ)
system.mem_ctrls.rank1.preEnergy               166980                       # Energy for precharge commands per rank (pJ)
system.mem_ctrls.rank1.readEnergy             1485120                       # Energy for read commands per rank (pJ)
system.mem_ctrls.rank1.writeEnergy                  0                       # Energy for write commands per rank (pJ)
system.mem_ctrls.rank1.refreshEnergy     2458560.000000                       # Energy for refresh commands per rank (pJ)
system.mem_ctrls.rank1.actBackEnergy         15910410                       # Energy for active background per rank (pJ)
system.mem_ctrls.rank1.preBackEnergy           620160                       # Energy for precharge background per rank (pJ)
system.mem_ctrls.rank1.actPowerDownEnergy            0                       # Energy for active power-down per rank (pJ)
system.mem_ctrls.rank1.prePowerDownEnergy            0                       # Energy for precharge power-down per rank (pJ)
system.mem_ctrls.rank1.selfRefreshEnergy            0                       # Energy for self refresh per rank (pJ)
system.mem_ctrls.rank1.totalEnergy           20991090                       # Total energy per rank (pJ)
system.mem_ctrls.rank1.averagePower        575.003835                       # Core power per rank (mW)
system.mem_ctrls.rank1.totalIdleTime                0                       # Total Idle time Per DRAM Rank
system.mem_ctrls.rank1.memoryStateTime::IDLE      1503500                       # Time in different power states
system.mem_ctrls.rank1.memoryStateTime::REF      1040000                       # Time in different power states
system.mem_ctrls.rank1.memoryStateTime::SREF            0                       # Time in different power states
system.mem_ctrls.rank1.memoryStateTime::PRE_PDN            0                       # Time in different power states
system.mem_ctrls.rank1.memoryStateTime::ACT     33962500                       # Time in different power states
system.mem_ctrls.rank1.memoryStateTime::ACT_PDN            0                       # Time in different power states
system.mem_ctrls.rank0.actEnergy               521220                       # Energy for activate commands per rank (pJ)
system.mem_ctrls.rank0.preEnergy               254265                       # Energy for precharge commands per rank (pJ)
system.mem_ctrls.rank0.readEnergy             2577540                       # Energy for read commands per rank (pJ)
system.mem_ctrls.rank0.writeEnergy             177480                       # Energy for write commands per rank (pJ)
system.mem_ctrls.rank0.refreshEnergy     2458560.000000                       # Energy for refresh commands per rank (pJ)
system.mem_ctrls.rank0.actBackEnergy         15671580                       # Energy for active background per rank (pJ)
system.mem_ctrls.rank0.preBackEnergy           821280                       # Energy for precharge background per rank (pJ)
system.mem_ctrls.rank0.actPowerDownEnergy            0                       # Energy for active power-down per rank (pJ)
system.mem_ctrls.rank0.prePowerDownEnergy            0                       # Energy for precharge power-down per rank (pJ)
system.mem_ctrls.rank0.selfRefreshEnergy            0                       # Energy for self refresh per rank (pJ)
system.mem_ctrls.rank0.totalEnergy           22481925                       # Total energy per rank (pJ)
system.mem_ctrls.rank0.averagePower        615.841916                       # Core power per rank (mW)
system.mem_ctrls.rank0.totalIdleTime                0                       # Total Idle time Per DRAM Rank
system.mem_ctrls.rank0.memoryStateTime::IDLE      1999500                       # Time in different power states
system.mem_ctrls.rank0.memoryStateTime::REF      1040000                       # Time in different power states
system.mem_ctrls.rank0.memoryStateTime::SREF            0                       # Time in different power states
system.mem_ctrls.rank0.memoryStateTime::PRE_PDN            0                       # Time in different power states
system.mem_ctrls.rank0.memoryStateTime::ACT     33466500                       # Time in different power states
system.mem_ctrls.rank0.memoryStateTime::ACT_PDN            0                       # Time in different power states
system.cpu_clk_domain.clock                       500                       # Clock period in ticks
system.cpu.pwrStateResidencyTicks::ON        36506000                       # Cumulative time (in ticks) in various power states
system.cpu.icache.pwrStateResidencyTicks::UNDEFINED     36506000                       # Cumulative time (in ticks) in various power states
system.cpu.icache.demand_hits::.cpu.inst         4375                       # number of demand (read+write) hits
system.cpu.icache.demand_hits::total             4375                       # number of demand (read+write) hits
system.cpu.icache.overall_hits::.cpu.inst         4375                       # number of overall hits
system.cpu.icache.overall_hits::total            4375                       # number of overall hits
system.cpu.icache.demand_misses::.cpu.inst          420                       # number of demand (read+write) misses
system.cpu.icache.demand_misses::total            420                       # number of demand (read+write) misses
system.cpu.icache.overall_misses::.cpu.inst          420                       # number of overall misses
system.cpu.icache.overall_misses::total           420                       # number of overall misses
system.cpu.icache.demand_miss_latency::.cpu.inst     23748500                       # number of demand (read+write) miss cycles
system.cpu.icache.demand_miss_latency::total     23748500                       # number of demand (read+write) miss cycles
system.cpu.icache.overall_miss_latency::.cpu.inst     23748500                       # number of overall miss cycles
system.cpu.icache.overall_miss_latency::total     23748500                       # number of overall miss cycles
system.cpu.icache.demand_accesses::.cpu.inst         4795                       # number of demand (read+write) accesses
system.cpu.icache.demand_accesses::total         4795                       # number of demand (read+write) accesses
system.cpu.icache.overall_accesses::.cpu.inst         4795                       # number of overall (read+write) accesses
system.cpu.icache.overall_accesses::total         4795                       # number of overall (read+write) accesses
system.cpu.icache.demand_miss_rate::.cpu.inst     0.087591                       # miss rate for demand accesses
system.cpu.icache.demand_miss_rate::total     0.087591                       # miss rate for demand accesses
system.cpu.icache.overall_miss_rate::.cpu.inst     0.087591                       # miss rate for overall accesses
system.cpu.icache.overall_miss_rate::total     0.087591                       # miss rate for overall accesses
system.cpu.icache.demand_avg_miss_latency::.cpu.inst 56544.047619                       # average overall miss latency
system.cpu.icache.demand_avg_miss_latency::total 56544.047619                       # average overall miss latency
system.cpu.icache.overall_avg_miss_latency::.cpu.inst 56544.047619                       # average overall miss latency
system.cpu.icache.overall_avg_miss_latency::total 56544.047619                       # average overall miss latency
system.cpu.icache.blocked_cycles::no_mshrs            0                       # number of cycles access was blocked
system.cpu.icache.blocked_cycles::no_targets            0                       # number of cycles access was blocked
system.cpu.icache.blocked::no_mshrs                 0                       # number of cycles access was blocked
system.cpu.icache.blocked::no_targets               0                       # number of cycles access was blocked
system.cpu.icache.avg_blocked_cycles::no_mshrs          nan                       # average number of cycles each access was blocked
system.cpu.icache.avg_blocked_cycles::no_targets          nan                       # average number of cycles each access was blocked
system.cpu.icache.writebacks::.writebacks           74                       # number of writebacks
system.cpu.icache.writebacks::total                74                       # number of writebacks
system.cpu.icache.demand_mshr_misses::.cpu.inst          420                       # number of demand (read+write) MSHR misses
system.cpu.icache.demand_mshr_misses::total          420                       # number of demand (read+write) MSHR misses
system.cpu.icache.overall_mshr_misses::.cpu.inst          420                       # number of overall MSHR misses
system.cpu.icache.overall_mshr_misses::total          420                       # number of overall MSHR misses
system.cpu.icache.demand_mshr_miss_latency::.cpu.inst     23328500                       # number of demand (read+write) MSHR miss cycles
system.cpu.icache.demand_mshr_miss_latency::total     23328500                       # number of demand (read+write) MSHR miss cycles
system.cpu.icache.overall_mshr_miss_latency::.cpu.inst     23328500                       # number of overall MSHR miss cycles
system.cpu.icache.overall_mshr_miss_latency::total     23328500                       # number of overall MSHR miss cycles
system.cpu.icache.demand_mshr_miss_rate::.cpu.inst     0.087591                       # mshr miss rate for demand accesses
system.cpu.icache.demand_mshr_miss_rate::total     0.087591                       # mshr miss rate for demand accesses
system.cpu.icache.overall_mshr_miss_rate::.cpu.inst     0.087591                       # mshr miss rate for overall accesses
system.cpu.icache.overall_mshr_miss_rate::total     0.087591                       # mshr miss rate for overall accesses
system.cpu.icache.demand_avg_mshr_miss_latency::.cpu.inst 55544.047619                       # average overall mshr miss latency
system.cpu.icache.demand_avg_mshr_miss_latency::total 55544.047619                       # average overall mshr miss latency
system.cpu.icache.overall_avg_mshr_miss_latency::.cpu.inst 55544.047619                       # average overall mshr miss latency
system.cpu.icache.overall_avg_mshr_miss_latency::total 55544.047619                       # average overall mshr miss latency
system.cpu.icache.replacements                     74                       # number of replacements
system.cpu.icache.ReadReq_hits::.cpu.inst         4375                       # number of ReadReq hits
system.cpu.icache.ReadReq_hits::total            4375                       # number of ReadReq hits
system.cpu.icache.ReadReq_misses::.cpu.inst          420                       # number of ReadReq misses
system.cpu.icache.ReadReq_misses::total           420                       # number of ReadReq misses
system.cpu.icache.ReadReq_miss_latency::.cpu.inst     23748500                       # number of ReadReq miss cycles
system.cpu.icache.ReadReq_miss_latency::total     23748500                       # number of ReadReq miss cycles
system.cpu.icache.ReadReq_accesses::.cpu.inst         4795                       # number of ReadReq accesses(hits+misses)
system.cpu.icache.ReadReq_accesses::total         4795                       # number of ReadReq accesses(hits+misses)
system.cpu.icache.ReadReq_miss_rate::.cpu.inst     0.087591                       # miss rate for ReadReq accesses
system.cpu.icache.ReadReq_miss_rate::total     0.087591                       # miss rate for ReadReq accesses
system.cpu.icache.ReadReq_avg_miss_latency::.cpu.inst 56544.047619                       # average ReadReq miss latency
system.cpu.icache.ReadReq_avg_miss_latency::total 56544.047619                       # average ReadReq miss latency
system.cpu.icache.ReadReq_mshr_misses::.cpu.inst          420                       # number of ReadReq MSHR misses
system.cpu.icache.ReadReq_mshr_misses::total          420                       # number of ReadReq MSHR misses
system.cpu.icache.ReadReq_mshr_miss_latency::.cpu.inst     23328500                       # number of ReadReq MSHR miss cycles
system.cpu.icache.ReadReq_mshr_miss_latency::total     23328500                       # number of ReadReq MSHR miss cycles
system.cpu.icache.ReadReq_mshr_miss_rate::.cpu.inst     0.087591                       # mshr miss rate for ReadReq accesses
system.cpu.icache.ReadReq_mshr_miss_rate::total     0.087591                       # mshr miss rate for ReadReq accesses
system.cpu.icache.ReadReq_avg_mshr_miss_latency::.cpu.inst 55544.047619                       # average ReadReq mshr miss latency
system.cpu.icache.ReadReq_avg_mshr_miss_latency::total 55544.047619                       # average ReadReq mshr miss latency
system.cpu.icache.tags.pwrStateResidencyTicks::UNDEFINED     36506000                       # Cumulative time (in ticks) in various power states
system.cpu.icache.tags.tagsinuse           192.658170                       # Cycle average of tags in use
system.cpu.icache.tags.total_refs                4795                       # Total number of references to valid blocks.
system.cpu.icache.tags.sampled_refs               420                       # Sample count of references to valid blocks.
system.cpu.icache.tags.avg_refs             11.416667                       # Average number of references to valid blocks.
system.cpu.icache.tags.warmup_cycle             77000                       # Cycle when the warmup percentage was hit.
system.cpu.icache.tags.occ_blocks::.cpu.inst   192.658170                       # Average occupied blocks per requestor
system.cpu.icache.tags.occ_percent::.cpu.inst     0.376285                       # Average percentage of cache occupancy
system.cpu.icache.tags.occ_percent::total     0.376285                       # Average percentage of cache occupancy
system.cpu.icache.tags.occ_task_id_blocks::1024          346                       # Occupied blocks per task id
system.cpu.icache.tags.age_task_id_blocks_1024::0          111                       # Occupied blocks per task id
system.cpu.icache.tags.age_task_id_blocks_1024::1          235                       # Occupied blocks per task id
system.cpu.icache.tags.occ_task_id_percent::1024     0.675781                       # Percentage of cache occupancy per task id
system.cpu.icache.tags.tag_accesses             10010                       # Number of tag accesses
system.cpu.icache.tags.data_accesses            10010                       # Number of data accesses
system.cpu.dtb.walker.pwrStateResidencyTicks::UNDEFINED     36506000                       # Cumulative time (in ticks) in various power states
system.cpu.dtb.stage2_mmu.stage2_tlb.walker.pwrStateResidencyTicks::UNDEFINED     36506000                       # Cumulative time (in ticks) in various power states
system.cpu.dcache.pwrStateResidencyTicks::UNDEFINED     36506000                       # Cumulative time (in ticks) in various power states
system.cpu.dcache.demand_hits::.cpu.data         4125                       # number of demand (read+write) hits
system.cpu.dcache.demand_hits::total             4125                       # number of demand (read+write) hits
system.cpu.dcache.overall_hits::.cpu.data         4145                       # number of overall hits
system.cpu.dcache.overall_hits::total            4145                       # number of overall hits
system.cpu.dcache.demand_misses::.cpu.data          202                       # number of demand (read+write) misses
system.cpu.dcache.demand_misses::total            202                       # number of demand (read+write) misses
system.cpu.dcache.overall_misses::.cpu.data          213                       # number of overall misses
system.cpu.dcache.overall_misses::total           213                       # number of overall misses
system.cpu.dcache.demand_miss_latency::.cpu.data     12258000                       # number of demand (read+write) miss cycles
system.cpu.dcache.demand_miss_latency::total     12258000                       # number of demand (read+write) miss cycles
system.cpu.dcache.overall_miss_latency::.cpu.data     12258000                       # number of overall miss cycles
system.cpu.dcache.overall_miss_latency::total     12258000                       # number of overall miss cycles
system.cpu.dcache.demand_accesses::.cpu.data         4327                       # number of demand (read+write) accesses
system.cpu.dcache.demand_accesses::total         4327                       # number of demand (read+write) accesses
system.cpu.dcache.overall_accesses::.cpu.data         4358                       # number of overall (read+write) accesses
system.cpu.dcache.overall_accesses::total         4358                       # number of overall (read+write) accesses
system.cpu.dcache.demand_miss_rate::.cpu.data     0.046684                       # miss rate for demand accesses
system.cpu.dcache.demand_miss_rate::total     0.046684                       # miss rate for demand accesses
system.cpu.dcache.overall_miss_rate::.cpu.data     0.048876                       # miss rate for overall accesses
system.cpu.dcache.overall_miss_rate::total     0.048876                       # miss rate for overall accesses
system.cpu.dcache.demand_avg_miss_latency::.cpu.data 60683.168317                       # average overall miss latency
system.cpu.dcache.demand_avg_miss_latency::total 60683.168317                       # average overall miss latency
system.cpu.dcache.overall_avg_miss_latency::.cpu.data 57549.295775                       # average overall miss latency
system.cpu.dcache.overall_avg_miss_latency::total 57549.295775                       # average overall miss latency
system.cpu.dcache.blocked_cycles::no_mshrs            0                       # number of cycles access was blocked
system.cpu.dcache.blocked_cycles::no_targets            0                       # number of cycles access was blocked
system.cpu.dcache.blocked::no_mshrs                 0                       # number of cycles access was blocked
system.cpu.dcache.blocked::no_targets               0                       # number of cycles access was blocked
system.cpu.dcache.avg_blocked_cycles::no_mshrs          nan                       # average number of cycles each access was blocked
system.cpu.dcache.avg_blocked_cycles::no_targets          nan                       # average number of cycles each access was blocked
system.cpu.dcache.demand_mshr_hits::.cpu.data           50                       # number of demand (read+write) MSHR hits
system.cpu.dcache.demand_mshr_hits::total           50                       # number of demand (read+write) MSHR hits
system.cpu.dcache.overall_mshr_hits::.cpu.data           50                       # number of overall MSHR hits
system.cpu.dcache.overall_mshr_hits::total           50                       # number of overall MSHR hits
system.cpu.dcache.demand_mshr_misses::.cpu.data          152                       # number of demand (read+write) MSHR misses
system.cpu.dcache.demand_mshr_misses::total          152                       # number of demand (read+write) MSHR misses
system.cpu.dcache.overall_mshr_misses::.cpu.data          160                       # number of overall MSHR misses
system.cpu.dcache.overall_mshr_misses::total          160                       # number of overall MSHR misses
system.cpu.dcache.demand_mshr_miss_latency::.cpu.data      9034000                       # number of demand (read+write) MSHR miss cycles
system.cpu.dcache.demand_mshr_miss_latency::total      9034000                       # number of demand (read+write) MSHR miss cycles
system.cpu.dcache.overall_mshr_miss_latency::.cpu.data      9507500                       # number of overall MSHR miss cycles
system.cpu.dcache.overall_mshr_miss_latency::total      9507500                       # number of overall MSHR miss cycles
system.cpu.dcache.demand_mshr_miss_rate::.cpu.data     0.035128                       # mshr miss rate for demand accesses
system.cpu.dcache.demand_mshr_miss_rate::total     0.035128                       # mshr miss rate for demand accesses
system.cpu.dcache.overall_mshr_miss_rate::.cpu.data     0.036714                       # mshr miss rate for overall accesses
system.cpu.dcache.overall_mshr_miss_rate::total     0.036714                       # mshr miss rate for overall accesses
system.cpu.dcache.demand_avg_mshr_miss_latency::.cpu.data 59434.210526                       # average overall mshr miss latency
system.cpu.dcache.demand_avg_mshr_miss_latency::total 59434.210526                       # average overall mshr miss latency
system.cpu.dcache.overall_avg_mshr_miss_latency::.cpu.data 59421.875000                       # average overall mshr miss latency
system.cpu.dcache.overall_avg_mshr_miss_latency::total 59421.875000                       # average overall mshr miss latency
system.cpu.dcache.replacements                      0                       # number of replacements
system.cpu.dcache.ReadReq_hits::.cpu.data         2192                       # number of ReadReq hits
system.cpu.dcache.ReadReq_hits::total            2192                       # number of ReadReq hits
system.cpu.dcache.ReadReq_misses::.cpu.data           95                       # number of ReadReq misses
system.cpu.dcache.ReadReq_misses::total            95                       # number of ReadReq misses
system.cpu.dcache.ReadReq_miss_latency::.cpu.data      5558000                       # number of ReadReq miss cycles
system.cpu.dcache.ReadReq_miss_latency::total      5558000                       # number of ReadReq miss cycles
system.cpu.dcache.ReadReq_accesses::.cpu.data         2287                       # number of ReadReq accesses(hits+misses)
system.cpu.dcache.ReadReq_accesses::total         2287                       # number of ReadReq accesses(hits+misses)
system.cpu.dcache.ReadReq_miss_rate::.cpu.data     0.041539                       # miss rate for ReadReq accesses
system.cpu.dcache.ReadReq_miss_rate::total     0.041539                       # miss rate for ReadReq accesses
system.cpu.dcache.ReadReq_avg_miss_latency::.cpu.data 58505.263158                       # average ReadReq miss latency
system.cpu.dcache.ReadReq_avg_miss_latency::total 58505.263158                       # average ReadReq miss latency
system.cpu.dcache.ReadReq_mshr_hits::.cpu.data            7                       # number of ReadReq MSHR hits
system.cpu.dcache.ReadReq_mshr_hits::total            7                       # number of ReadReq MSHR hits
system.cpu.dcache.ReadReq_mshr_misses::.cpu.data           88                       # number of ReadReq MSHR misses
system.cpu.dcache.ReadReq_mshr_misses::total           88                       # number of ReadReq MSHR misses
system.cpu.dcache.ReadReq_mshr_miss_latency::.cpu.data      5089000                       # number of ReadReq MSHR miss cycles
system.cpu.dcache.ReadReq_mshr_miss_latency::total      5089000                       # number of ReadReq MSHR miss cycles
system.cpu.dcache.ReadReq_mshr_miss_rate::.cpu.data     0.038478                       # mshr miss rate for ReadReq accesses
system.cpu.dcache.ReadReq_mshr_miss_rate::total     0.038478                       # mshr miss rate for ReadReq accesses
system.cpu.dcache.ReadReq_avg_mshr_miss_latency::.cpu.data 57829.545455                       # average ReadReq mshr miss latency
system.cpu.dcache.ReadReq_avg_mshr_miss_latency::total 57829.545455                       # average ReadReq mshr miss latency
system.cpu.dcache.WriteReq_hits::.cpu.data         1933                       # number of WriteReq hits
system.cpu.dcache.WriteReq_hits::total           1933                       # number of WriteReq hits
system.cpu.dcache.WriteReq_misses::.cpu.data          107                       # number of WriteReq misses
system.cpu.dcache.WriteReq_misses::total          107                       # number of WriteReq misses
system.cpu.dcache.WriteReq_miss_latency::.cpu.data      6700000                       # number of WriteReq miss cycles
system.cpu.dcache.WriteReq_miss_latency::total      6700000                       # number of WriteReq miss cycles
system.cpu.dcache.WriteReq_accesses::.cpu.data         2040                       # number of WriteReq accesses(hits+misses)
system.cpu.dcache.WriteReq_accesses::total         2040                       # number of WriteReq accesses(hits+misses)
system.cpu.dcache.WriteReq_miss_rate::.cpu.data     0.052451                       # miss rate for WriteReq accesses
system.cpu.dcache.WriteReq_miss_rate::total     0.052451                       # miss rate for WriteReq accesses
system.cpu.dcache.WriteReq_avg_miss_latency::.cpu.data 62616.822430                       # average WriteReq miss latency
system.cpu.dcache.WriteReq_avg_miss_latency::total 62616.822430                       # average WriteReq miss latency
system.cpu.dcache.WriteReq_mshr_hits::.cpu.data           43                       # number of WriteReq MSHR hits
system.cpu.dcache.WriteReq_mshr_hits::total           43                       # number of WriteReq MSHR hits
system.cpu.dcache.WriteReq_mshr_misses::.cpu.data           64                       # number of WriteReq MSHR misses
system.cpu.dcache.WriteReq_mshr_misses::total           64                       # number of WriteReq MSHR misses
system.cpu.dcache.WriteReq_mshr_miss_latency::.cpu.data      3945000                       # number of WriteReq MSHR miss cycles
system.cpu.dcache.WriteReq_mshr_miss_latency::total      3945000                       # number of WriteReq MSHR miss cycles
system.cpu.dcache.WriteReq_mshr_miss_rate::.cpu.data     0.031373                       # mshr miss rate for WriteReq accesses
system.cpu.dcache.WriteReq_mshr_miss_rate::total     0.031373                       # mshr miss rate for WriteReq accesses
system.cpu.dcache.WriteReq_avg_mshr_miss_latency::.cpu.data 61640.625000                       # average WriteReq mshr miss latency
system.cpu.dcache.WriteReq_avg_mshr_miss_latency::total 61640.625000                       # average WriteReq mshr miss latency
system.cpu.dcache.SoftPFReq_hits::.cpu.data           20                       # number of SoftPFReq hits
system.cpu.dcache.SoftPFReq_hits::total            20                       # number of SoftPFReq hits
system.cpu.dcache.SoftPFReq_misses::.cpu.data           11                       # number of SoftPFReq misses
system.cpu.dcache.SoftPFReq_misses::total           11                       # number of SoftPFReq misses
system.cpu.dcache.SoftPFReq_accesses::.cpu.data           31                       # number of SoftPFReq accesses(hits+misses)
system.cpu.dcache.SoftPFReq_accesses::total           31                       # number of SoftPFReq accesses(hits+misses)
system.cpu.dcache.SoftPFReq_miss_rate::.cpu.data     0.354839                       # miss rate for SoftPFReq accesses
system.cpu.dcache.SoftPFReq_miss_rate::total     0.354839                       # miss rate for SoftPFReq accesses
system.cpu.dcache.SoftPFReq_mshr_misses::.cpu.data            8                       # number of SoftPFReq MSHR misses
system.cpu.dcache.SoftPFReq_mshr_misses::total            8                       # number of SoftPFReq MSHR misses
system.cpu.dcache.SoftPFReq_mshr_miss_latency::.cpu.data       473500                       # number of SoftPFReq MSHR miss cycles
system.cpu.dcache.SoftPFReq_mshr_miss_latency::total       473500                       # number of SoftPFReq MSHR miss cycles
system.cpu.dcache.SoftPFReq_mshr_miss_rate::.cpu.data     0.258065                       # mshr miss rate for SoftPFReq accesses
system.cpu.dcache.SoftPFReq_mshr_miss_rate::total     0.258065                       # mshr miss rate for SoftPFReq accesses
system.cpu.dcache.SoftPFReq_avg_mshr_miss_latency::.cpu.data 59187.500000                       # average SoftPFReq mshr miss latency
system.cpu.dcache.SoftPFReq_avg_mshr_miss_latency::total 59187.500000                       # average SoftPFReq mshr miss latency
system.cpu.dcache.LoadLockedReq_hits::.cpu.data           25                       # number of LoadLockedReq hits
system.cpu.dcache.LoadLockedReq_hits::total           25                       # number of LoadLockedReq hits
system.cpu.dcache.LoadLockedReq_misses::.cpu.data            1                       # number of LoadLockedReq misses
system.cpu.dcache.LoadLockedReq_misses::total            1                       # number of LoadLockedReq misses
system.cpu.dcache.LoadLockedReq_miss_latency::.cpu.data        57500                       # number of LoadLockedReq miss cycles
system.cpu.dcache.LoadLockedReq_miss_latency::total        57500                       # number of LoadLockedReq miss cycles
system.cpu.dcache.LoadLockedReq_accesses::.cpu.data           26                       # number of LoadLockedReq accesses(hits+misses)
system.cpu.dcache.LoadLockedReq_accesses::total           26                       # number of LoadLockedReq accesses(hits+misses)
system.cpu.dcache.LoadLockedReq_miss_rate::.cpu.data     0.038462                       # miss rate for LoadLockedReq accesses
system.cpu.dcache.LoadLockedReq_miss_rate::total     0.038462                       # miss rate for LoadLockedReq accesses
system.cpu.dcache.LoadLockedReq_avg_miss_latency::.cpu.data        57500                       # average LoadLockedReq miss latency
system.cpu.dcache.LoadLockedReq_avg_miss_latency::total        57500                       # average LoadLockedReq miss latency
system.cpu.dcache.LoadLockedReq_mshr_misses::.cpu.data            1                       # number of LoadLockedReq MSHR misses
system.cpu.dcache.LoadLockedReq_mshr_misses::total            1                       # number of LoadLockedReq MSHR misses
system.cpu.dcache.LoadLockedReq_mshr_miss_latency::.cpu.data        56500                       # number of LoadLockedReq MSHR miss cycles
system.cpu.dcache.LoadLockedReq_mshr_miss_latency::total        56500                       # number of LoadLockedReq MSHR miss cycles
system.cpu.dcache.LoadLockedReq_mshr_miss_rate::.cpu.data     0.038462                       # mshr miss rate for LoadLockedReq accesses
system.cpu.dcache.LoadLockedReq_mshr_miss_rate::total     0.038462                       # mshr miss rate for LoadLockedReq accesses
system.cpu.dcache.LoadLockedReq_avg_mshr_miss_latency::.cpu.data        56500                       # average LoadLockedReq mshr miss latency
system.cpu.dcache.LoadLockedReq_avg_mshr_miss_latency::total        56500                       # average LoadLockedReq mshr miss latency
system.cpu.dcache.StoreCondReq_hits::.cpu.data           26                       # number of StoreCondReq hits
system.cpu.dcache.StoreCondReq_hits::total           26                       # number of StoreCondReq hits
system.cpu.dcache.StoreCondReq_accesses::.cpu.data           26                       # number of StoreCondReq accesses(hits+misses)
system.cpu.dcache.StoreCondReq_accesses::total           26                       # number of StoreCondReq accesses(hits+misses)
system.cpu.dcache.tags.pwrStateResidencyTicks::UNDEFINED     36506000                       # Cumulative time (in ticks) in various power states
system.cpu.dcache.tags.tagsinuse            98.402593                       # Cycle average of tags in use
system.cpu.dcache.tags.total_refs                4357                       # Total number of references to valid blocks.
system.cpu.dcache.tags.sampled_refs               161                       # Sample count of references to valid blocks.
system.cpu.dcache.tags.avg_refs             27.062112                       # Average number of references to valid blocks.
system.cpu.dcache.tags.warmup_cycle            145000                       # Cycle when the warmup percentage was hit.
system.cpu.dcache.tags.occ_blocks::.cpu.data    98.402593                       # Average occupied blocks per requestor
system.cpu.dcache.tags.occ_percent::.cpu.data     0.096096                       # Average percentage of cache occupancy
system.cpu.dcache.tags.occ_percent::total     0.096096                       # Average percentage of cache occupancy
system.cpu.dcache.tags.occ_task_id_blocks::1024          161                       # Occupied blocks per task id
system.cpu.dcache.tags.age_task_id_blocks_1024::0           25                       # Occupied blocks per task id
system.cpu.dcache.tags.age_task_id_blocks_1024::1          136                       # Occupied blocks per task id
system.cpu.dcache.tags.occ_task_id_percent::1024     0.157227                       # Percentage of cache occupancy per task id
system.cpu.dcache.tags.tag_accesses              8981                       # Number of tag accesses
system.cpu.dcache.tags.data_accesses             8981                       # Number of data accesses
system.cpu.itb.walker.pwrStateResidencyTicks::UNDEFINED     36506000                       # Cumulative time (in ticks) in various power states
system.cpu.itb.stage2_mmu.stage2_tlb.walker.pwrStateResidencyTicks::UNDEFINED     36506000                       # Cumulative time (in ticks) in various power states

---------- End Simulation Statistics   ----------
